************************************************************************
*Heading
Input file heterogenous
************************************************************************
**
** Kaushik Vijaykumar, May 2015
**
************************************************************************
**                          Parameters                                  
************************************************************************
*Parameter
**
** Shear modulus (MPa)
Gh =8.0e3
Gs =8.0e3
**
** Bulk modulus (MPa)
Kh = 17.33e3
Ks = 17.33e3
**
** Energy release rate (N/mm)
Gch = 0.5
Gcs = 0.05
** Length scale (mm)
l_0 = 0.025
** Kvar
kvarh = 0.0005
kvars = 0.0005
** eta penalty term
eta = 2
** n integer
n = 2
** total simulation time (seconds)
tf = 1.0
**
************************************************************************
**                      Model definition                                
************************************************************************
**
** Nodes
**
*Node, nset=nall
      1,           0., -0.150000006
      2,           0., -0.200000003
      3,  0.550000012, -0.200000003
      4,  0.550000012, -0.150000006
      5,  0.550000012,  0.150000006
      6,  0.550000012,          0.5
      7,           0.,          0.5
      8,           0.,  0.150000006
      9,           0.,  0.100000001
     10,  0.550000012,  0.100000001
     11, -0.550000012, -0.150000006
     12, -0.550000012, -0.200000003
     13, -0.550000012,          0.5
     14, -0.550000012,  0.150000006
     15, -0.550000012,  0.100000001
     16,           0., -0.159999996
     17,           0., -0.170000002
     18,           0., -0.180000007
     19,           0., -0.189999998
     20, 0.00999999978, -0.200000003
** ... 24809 like lines cut
**
** Elements
**
*User Element,Nodes=4,Type=U1,Iproperties=1,Properties=6,Coordinates=2,Variables=28,Unsymm
1,2,11
*Element, type=U1, elset=elhard
1,5,132,970,307
2,147,148,986,985
3,163,164,1002,1001
4,982,983,1017,1016
5,998,999,1033,1032
6,1013,1014,1048,1047
7,1029,1030,1064,1063
8,1044,1045,1079,1078
9,1060,1061,1095,1094
10,1075,1076,1110,1109
11,1091,1092,1126,1125
12,1106,1107,1141,1140
13,1122,1123,1157,1156
14,1138,1139,1173,1172
15,1153,1154,1188,1187
16,1169,1170,1204,1203
17,1184,1185,1219,1218
18,1200,1201,1235,1234
19,1215,1216,1250,1249
20,1231,1232,1266,1265
** ... 21668 like lines cut
*Element, type=U1, elset=elsoft
21689,1,16,754,131
21690,762,763,767,766
21691,775,776,780,779
21692,788,789,793,792
21693,801,31,32,805
21694,116,814,818,115
21695,826,827,831,830
21696,839,840,844,843
21697,852,853,857,856
21698,865,47,48,869
21699,100,878,882,99
21700,890,891,895,894
21701,903,904,908,907
21702,916,917,921,920
21703,929,63,64,933
21704,84,942,946,83
21705,954,955,959,958
21706,967,968,75,76
21707,4108,4109,4113,4112
21708,4121,418,419,4125
** ... 2886 like lines cut
*Element, type=CPE4, elset=eldummy
24595,5,132,970,307
24596,147,148,986,985
24597,163,164,1002,1001
24598,982,983,1017,1016
24599,998,999,1033,1032
24600,1013,1014,1048,1047
24601,1029,1030,1064,1063
24602,1044,1045,1079,1078
24603,1060,1061,1095,1094
24604,1075,1076,1110,1109
24605,1091,1092,1126,1125
24606,1106,1107,1141,1140
24607,1122,1123,1157,1156
24608,1138,1139,1173,1172
24609,1153,1154,1188,1187
24610,1169,1170,1204,1203
24611,1184,1185,1219,1218
24612,1200,1201,1235,1234
24613,1215,1216,1250,1249
24614,1231,1232,1266,1265
** ... 24574 like lines cut
** Make a dummy element which is not connected to anything with CAX4T
**  just so that the coupled thermal-displacement analysis is available.
**
*Node
9999996,  0.001, 0.001
9999997,  0.002, 0.001
9999998,  0.002, 0.002
9999999,  0.001, 0.002
*Nset, nset=tempElement
9999996,9999997,9999998,9999999
*Element, Type=CAX4T
99999999,9999996,9999997,9999998,9999999
*Elset,elset=tempElement
99999999
**
** Sets
**
*Nset, nset=Roller_left
 17814,
*Nset, nset=Load
 7,
*Nset, nset=Roller_right
 17808,
************************************************************************
**                    MATERIAL DEFINITION                               
************************************************************************
**
** Material properties for the real material
**
*uel property,elset=elhard
*******************************************************************
**Gshear    Kbulk     Gc      l_0        Kvar    eta,   n
<Gh>,         <Kh>,    <Gch>,   <l_0>,     <kvarh>, <eta>, <n>  
**
*uel property,elset=elsoft
*******************************************************************
**Gshear    Kbulk     Gc      l_0        Kvar    eta,   n
<Gs>,         <Ks>,    <Gcs>,   <l_0>,     <kvars>, <eta>, <n>  
**
*******************************************************************
**
** Dummy mesh material properties
**
*Solid section, elset=ElDummy, material=Material-1
*Solid section, elset=tempElement, material=Material-2
**
*Material, name=Material-1
*User output variables
10
** The dummy mesh stiffness is very small
*Elastic
1.e-20
*Density
1.0
*Material, name=Material-2
*Elastic
1.e-20
*Conductivity
1.0
*Density
1.0
*Specific heat
1.0
**
************************************************************************
**                   Boundary conditions                                
************************************************************************
**
** Initial BCS
**
**boundary
**
************************************************************************
**                  INITIAL CONDITIONS                                  
************************************************************************
*Initial conditions, type=temperature
nall, 0.0
tempElement, 0.0
************************************************************************
**                  Step definition                                     
************************************************************************
*Step, Name=load, nlgeom=no, inc=5000000000000000000000000
*Coupled temperature-displacement, deltmx=1.e09
1.e-5,<tf>,1.e-20,0.02
*CONTROLS, PARAMETERS=TIME INCREMENTATION
,,,,,,,20,,,,,,
*Boundary
Load,2,2,-0.5
Roller_right,2,2
Roller_left,1,2
*boundary
tempElement,1,2
tempElement,11,11
****************
****************  OUTPUTS
****************
****************  Field output
****************
*Output, field, frequency=1
*node output, nset=nall
u,coord,nt,rf
*Element output, elset=eldummy
uvarm,e
****************
****************  History output
****************
*Output, history, frequency=1
*energy output, elset=elhard
allie
*END STEP
************************************************************************