************************************************************************
*Heading
Spicule bending with 3 layers
************************************************************************
**
** Kaushik Vijaykumar, March 2015
**
************************************************************************
**                          Parameters                                  
************************************************************************
*Parameter
**
** Shear modulus (MPa)
Gh =8.0e3
Gs =8.0e3
**
** Bulk modulus (MPa)
Kh = 17.33e3
Ks = 17.33e3
**
** Energy release rate (N/mm)
Gch = 0.5
Gcs = 0.05
** Length scale (mm)
l_0 = 0.025
** Kvar
kvarh = 0.0002
kvars = 0.0002
** eta penalty term
eta = 5
** n integer
n = 2
** total simulation time (seconds)
tf = 1.0
**
************************************************************************
**                      Model definition                                
************************************************************************
**
** Nodes
**
*Node, nset=nall
      1,          2.5,   1.70000005
      2,           0.,   1.70000005
      3,           0.,       1.5625
      4, 0.0500000007,          1.5
      5,          2.5,          1.5
      6,         -2.5,   1.70000005
      7,         -2.5,          1.5
      8, -0.0500000007,          1.5
      9,           0.,         1.75
     10,         -2.5,         1.75
     11,          2.5,         1.75
     12,          2.5,   1.89999998
     13,           0.,   1.89999998
     14,         -2.5,   1.89999998
     15,         -2.5,    2.3499999
     16,           0.,    2.3499999
     17,           0.,          2.5
     18,         -2.5,          2.5
     19,          2.5,    2.3499999
     20,          2.5,          2.5
** ... 17343 like lines cut
**
** Elements
**
*User Element,Nodes=4,Type=U1,Iproperties=1,Properties=6,Coordinates=2,Variables=40,Unsymm
1,2,11
*Element, type=U1, elset=elhard
1,33,34,2874,2711
2,3783,3819,3798,3059
3,3802,3218,2675,2676
4,2858,3056,3215,2859
5,3207,3782,3569,3816
6,3212,2648,3048,3046
7,3350,3209,3208,3362
8,3206,3349,3352,2645
9,3346,2644,3202,3200
10,3842,3466,2643,3810
11,3351,3195,3333,3474
12,3193,3191,3335,3817
13,3188,3186,3827,3330
14,3219,3808,3467,3359
15,3321,3322,3176,3174
16,3313,2637,3558,3315
17,3160,3159,3308,3309
18,2635,3436,3300,3298
19,3293,3292,3429,3430
20,3201,3205,3338,3337
** ... 13198 like lines cut
*Element, type=U1, elset=elsoft
13219,5694,5801,402,5779
13220,5801,5694,5781,5408
13221,5776,617,618,5777
13222,619,5779,5777,618
13223,615,5771,5769,614
13224,398,5771,5773,399
13225,612,5765,5763,611
13226,613,5767,5765,612
13227,610,5761,5760,609
13228,393,5761,5763,394
13229,607,5755,5753,606
13230,608,5757,5755,607
13231,604,5749,5747,603
13232,388,5751,5753,389
13233,601,5743,5742,600
13234,603,5747,5745,602
13235,599,5739,5737,598
13236,382,5739,5742,383
13237,378,5731,5734,379
13238,379,5734,5735,380
** ... 3939 like lines cut
**
** Make the dummy mesh, shares nodes with the real mesh,
**  allows visualization of the results, access to 
**  hourglass controls, and access to mechanical, 
**  traction-type boundary conditions
**
*Element, type=CPE4, elset=eldummy
17178,33,34,2874,2711
17179,3783,3819,3798,3059
17180,3802,3218,2675,2676
17181,2858,3056,3215,2859
17182,3207,3782,3569,3816
17183,3212,2648,3048,3046
17184,3350,3209,3208,3362
17185,3206,3349,3352,2645
17186,3346,2644,3202,3200
17187,3842,3466,2643,3810
17188,3351,3195,3333,3474
17189,3193,3191,3335,3817
17190,3188,3186,3827,3330
17191,3219,3808,3467,3359
17192,3321,3322,3176,3174
17193,3313,2637,3558,3315
17194,3160,3159,3308,3309
17195,2635,3436,3300,3298
17196,3293,3292,3429,3430
17197,3201,3205,3338,3337
** ... 17157 like lines cut
** Make a dummy element which is not connected to anything with CAX4T
**  just so that the coupled thermal-displacement analysis is available.
**
*Node
9999996,  0.001, 0.001
9999997,  0.002, 0.001
9999998,  0.002, 0.002
9999999,  0.001, 0.002
*Nset, nset=tempElement
9999996,9999997,9999998,9999999
*Element, Type=CAX4T
99999999,9999996,9999997,9999998,9999999
*Elset,elset=tempElement
99999999
**
** Sets
**
*Nset, nset=Load
17,
*Nset, nset=Roller_right
5, 
*Nset, nset=Roller_left
7,
************************************************************************
**                    MATERIAL DEFINITION                               
************************************************************************
**
** Material properties for the real material
**
*uel property,elset=elhard
*******************************************************************
**Gshear    Kbulk     Gc      l_0        Kvar    eta,   n
<Gh>,         <Kh>,    <Gch>,   <l_0>,     <kvarh>, <eta>, <n>  
**
*uel property,elset=elsoft
*******************************************************************
**Gshear    Kbulk     Gc      l_0        Kvar    eta,   n
<Gs>,         <Ks>,    <Gcs>,   <l_0>,     <kvars>, <eta>, <n>  
**
*******************************************************************
**
** Dummy mesh material properties
**
*Solid section, elset=ElDummy, material=Material-1
*Solid section, elset=tempElement, material=Material-2
**
*Material, name=Material-1
*User output variables
10
** The dummy mesh stiffness is very small
*Elastic
1.e-20
*Density
1.0
*Material, name=Material-2
*Elastic
1.e-20
*Conductivity
1.0
*Density
1.0
*Specific heat
1.0
**
************************************************************************
**                   Boundary conditions                                
************************************************************************
**
** Initial BCS
**
**boundary
**
************************************************************************
**                  INITIAL CONDITIONS                                  
************************************************************************
*Initial conditions, type=temperature
nall, 0.0
tempElement, 0.0
************************************************************************
**                  Step definition                                     
************************************************************************
*Step, Name=load, nlgeom=no, inc=5000000000000000000000000
*Coupled temperature-displacement, deltmx=1.e09
1.e-5,<tf>,1.e-20,0.02
*CONTROLS, PARAMETERS=TIME INCREMENTATION
,,,,,,,20,,,,,,
*Boundary
Load,2,2,-0.5
Roller_right,1,2
Roller_left,2,2
*boundary
tempElement,1,2
tempElement,11,11
****************
****************  OUTPUTS
****************
****************  Field output
****************
*Output, field, frequency=1
*node output, nset=nall
u,coord,nt,rf
*Element output, elset=eldummy
uvarm,e
****************
****************  History output
****************
*END STEP
************************************************************************