************************************************************************
*Heading
Input file heterogenous
************************************************************************
**
** Kaushik Vijaykumar, May 2015
**
************************************************************************
**                          Parameters                                  
************************************************************************
*Parameter
**
** Shear modulus (MPa)
Gh =8.0e3
Gs =8.0e3
**
** Bulk modulus (MPa)
Kh = 17.33e3
Ks = 17.33e3
**
** Energy release rate (N/mm)
Gch = 0.5
Gcs = 0.05
** Length scale (mm)
l_0 = 0.025
** Kvar
kvarh = 0.00001
kvars = 0.00001
** eta penalty term
eta = 2
** n integer
n = 2
** total simulation time (seconds)
tf = 1.0
**
************************************************************************
**                      Model definition                                
************************************************************************
**
** Nodes
**
*Node, nset=nall
      1,  -1.35000002, 0.0500000007
      2,  -1.35000002,           0.
      3, -0.550000012,           0.
      4, -0.550000012, 0.0500000007
      5,   1.35000002,           0.
      6,   1.35000002, 0.0500000007
      7,  0.550000012, 0.0500000007
      8,  0.550000012,           0.
      9,           0., 0.0500000007
     10,           0.,           0.
     11,  -1.35000002, 0.0399999991
     12,  -1.35000002, 0.0299999993
     13,  -1.35000002, 0.0199999996
     14,  -1.35000002, 0.00999999978
     15,  -1.34000003,           0.
     16,  -1.33000004,           0.
     17,  -1.32000005,           0.
     18,  -1.30999994,           0.
     19,  -1.29999995,           0.
     20,  -1.28999996,           0.
** ... 21222 like lines cut
**
** Elements
**
*User Element,Nodes=4,Type=U1,Iproperties=1,Properties=6,Coordinates=2,Variables=28,Unsymm
1,2,11
*Element, type=U1, elset=elhard
1,1778,1781,1870,1679
2,1781,1782,1871,1870
3,1782,1783,1872,1871
4,1783,1784,1873,1872
5,1784,1785,1874,1873
6,1785,1786,1875,1874
7,1786,1787,1876,1875
8,1787,1788,1877,1876
9,1788,1789,1878,1877
10,1789,1790,1879,1878
11,1790,1791,1880,1879
12,1791,1792,1881,1880
13,1792,1793,1882,1881
14,1793,1794,1883,1882
15,1794,1795,1884,1883
16,1795,1796,1885,1884
17,1796,1797,1886,1885
18,1797,1798,1887,1886
19,1798,1799,1888,1887
20,1799,1800,1889,1888
** ... 19609 like lines cut
*Element, type=U1, elset=elsoft
19630,1,11,563,176
19631,571,572,576,575
19632,584,585,589,588
19633,597,598,602,601
19634,610,26,27,614
19635,161,623,627,160
19636,635,636,640,639
19637,648,649,653,652
19638,661,662,666,665
19639,674,42,43,678
19640,145,687,691,144
19641,699,700,704,703
19642,712,713,717,716
19643,725,726,730,729
19644,738,58,59,742
19645,129,751,755,128
19646,763,764,768,767
19647,776,777,781,780
19648,789,790,794,793
19649,802,74,75,806
** ... 1382 like lines cut
*Element, type=CPE4, elset=eldummy
21032,1778,1781,1870,1679
21033,1781,1782,1871,1870
21034,1782,1783,1872,1871
21035,1783,1784,1873,1872
21036,1784,1785,1874,1873
21037,1785,1786,1875,1874
21038,1786,1787,1876,1875
21039,1787,1788,1877,1876
21040,1788,1789,1878,1877
21041,1789,1790,1879,1878
21042,1790,1791,1880,1879
21043,1791,1792,1881,1880
21044,1792,1793,1882,1881
21045,1793,1794,1883,1882
21046,1794,1795,1884,1883
21047,1795,1796,1885,1884
21048,1796,1797,1886,1885
21049,1797,1798,1887,1886
21050,1798,1799,1888,1887
21051,1799,1800,1889,1888
** ... 21011 like lines cut
** Make a dummy element which is not connected to anything with CAX4T
**  just so that the coupled thermal-displacement analysis is available.
**
*Node
9999996,  0.001, 0.001
9999997,  0.002, 0.001
9999998,  0.002, 0.002
9999999,  0.001, 0.002
*Nset, nset=tempElement
9999996,9999997,9999998,9999999
*Element, Type=CAX4T
99999999,9999996,9999997,9999998,9999999
*Elset,elset=tempElement
99999999
**
** Sets
**
*Nset, nset=Roller_left
 6690,
*Nset, nset=Load
 1779,
*Nset, nset=Roller_right
 6708,
************************************************************************
**                    MATERIAL DEFINITION                               
************************************************************************
**
** Material properties for the real material
**
*uel property,elset=elhard
*******************************************************************
**Gshear    Kbulk     Gc      l_0        Kvar    eta,   n
<Gh>,         <Kh>,    <Gch>,   <l_0>,     <kvarh>, <eta>, <n>  
**
*uel property,elset=elsoft
*******************************************************************
**Gshear    Kbulk     Gc      l_0        Kvar    eta,   n
<Gs>,         <Ks>,    <Gcs>,   <l_0>,     <kvars>, <eta>, <n>  
**
*******************************************************************
**
** Dummy mesh material properties
**
*Solid section, elset=ElDummy, material=Material-1
*Solid section, elset=tempElement, material=Material-2
**
*Material, name=Material-1
*User output variables
10
** The dummy mesh stiffness is very small
*Elastic
1.e-20
*Density
1.0
*Material, name=Material-2
*Elastic
1.e-20
*Conductivity
1.0
*Density
1.0
*Specific heat
1.0
**
************************************************************************
**                   Boundary conditions                                
************************************************************************
**
** Initial BCS
**
**boundary
**
************************************************************************
**                  INITIAL CONDITIONS                                  
************************************************************************
*Initial conditions, type=temperature
nall, 0.0
tempElement, 0.0
************************************************************************
**                  Step definition                                     
************************************************************************
*Step, Name=load, nlgeom=no, inc=5000000000000000000000000
*Coupled temperature-displacement, deltmx=1.e09
1.e-5,<tf>,1.e-20,0.02
*CONTROLS, PARAMETERS=TIME INCREMENTATION
,,,,,,,20,,,,,,
*Boundary
Load,2,2,-0.5
Roller_right,2,2
Roller_left,1,2
*boundary
tempElement,1,2
tempElement,11,11
****************
****************  OUTPUTS
****************
****************  Field output
****************
*Output, field, frequency=1
*node output, nset=nall
u,coord,nt,rf
*Element output, elset=eldummy
uvarm,e
****************
****************  History output
****************
*Output, history, frequency=1
*energy output, elset=elhard
allie
*END STEP
************************************************************************