************************************************************************
*Heading
Input file heterogenous
************************************************************************
**
** Kaushik Vijaykumar, May 2015
**
************************************************************************
**                          Parameters                                  
************************************************************************
*Parameter
**
** Shear modulus (MPa)
Gh =8.0e3
Gs =8.0e3
**
** Bulk modulus (MPa)
Kh = 17.33e3
Ks = 17.33e3
**
** Energy release rate (N/mm)
Gch = 0.5
Gcs = 0.05
** Length scale (mm)
l_0 = 0.025
** Kvar
kvarh = 0.0001
kvars = 0.0001
** eta penalty term
eta = 10
** n integer
n = 2
** total simulation time (seconds)
tf = 1.0
**
************************************************************************
**                      Model definition                                
************************************************************************
**
*Node, nset=nall
      1, -0.550000012,        -0.25
      2, -0.550000012,         -0.5
      3, -0.0500000007,         -0.5
      4,           0.,      -0.4375
      5,           0.,        -0.25
      6,  0.550000012,         -0.5
      7,  0.550000012,        -0.25
      8, 0.0500000007,         -0.5
      9, -0.550000012, -0.257499993
     10, -0.550000012, -0.265144318
     11, -0.550000012, -0.272935778
     12, -0.550000012, -0.280877143
     13, -0.550000012, -0.288971335
     14, -0.550000012, -0.297221303
     15, -0.550000012, -0.305630028
     16, -0.550000012,  -0.31420055
     17, -0.550000012, -0.322936028
     18, -0.550000012, -0.331839591
     19, -0.550000012, -0.340914518
     20, -0.550000012, -0.350164086
** ... 38644 like lines cut
*User Element,Nodes=4,Type=U1,Iproperties=1,Properties=6,Coordinates=2,Variables=40,Unsymm
1,2,11
*Element, type=U1, elset=elhard
1,816,817,822,892
2,706,853,852,981
3,147,148,751,794
4,876,697,878,2260
5,1477,1037,1091,406
6,2255,2252,639,638
7,1052,982,699,1170
8,869,870,51,52
9,1559,421,1574,1658
10,1344,2485,1410,398
11,1348,1291,1412,1553
12,1629,1494,1680,471
13,458,1984,2006,2033
14,743,899,907,730
15,746,905,1067,745
16,1157,1103,1240,2296
17,815,946,1077,792
18,914,780,760,961
19,2108,2081,2117,2598
20,956,764,820,1018
** ... 30788 like lines cut
*Element, type=U1, elset=elsoft
30809,4968,4970,5078,5053
30810,4985,4986,5094,5093
30811,5001,5002,5110,5109
30812,5017,5018,5126,5125
30813,5033,5034,5142,5141
30814,5084,5085,5157,5156
30815,5100,5101,5173,5172
30816,5116,5117,5189,5188
30817,5132,5133,5205,5204
30818,5148,5149,5221,5220
30819,5163,5164,5236,5235
30820,5179,5180,5252,5251
30821,5195,5196,5268,5267
30822,5211,5212,5284,5283
30823,5226,5227,5299,5298
30824,5242,5243,5315,5314
30825,5258,5259,5331,5330
30826,5274,5275,5347,5346
30827,5290,5291,5363,5362
30828,5305,5306,5378,5377
** ... 7659 like lines cut
*Element, type=CPE4, elset=eldummy
38488,816,817,822,892
38489,706,853,852,981
38490,147,148,751,794
38491,876,697,878,2260
38492,1477,1037,1091,406
38493,2255,2252,639,638
38494,1052,982,699,1170
38495,869,870,51,52
38496,1559,421,1574,1658
38497,1344,2485,1410,398
38498,1348,1291,1412,1553
38499,1629,1494,1680,471
38500,458,1984,2006,2033
38501,743,899,907,730
38502,746,905,1067,745
38503,1157,1103,1240,2296
38504,815,946,1077,792
38505,914,780,760,961
38506,2108,2081,2117,2598
38507,956,764,820,1018
** ... 38467 like lines cut
** Make a dummy element which is not connected to anything with CAX4T
**  just so that the coupled thermal-displacement analysis is available.
**
*Node
9999996,  0.001, 0.001
9999997,  0.002, 0.001
9999998,  0.002, 0.002
9999999,  0.001, 0.002
*Nset, nset=tempElement
9999996,9999997,9999998,9999999
*Element, Type=CAX4T
99999999,9999996,9999997,9999998,9999999
*Elset,elset=tempElement
99999999
**
** Sets
**
*Nset, nset=Roller_left
 31038,
*Nset, nset=Load
 36312,
*Nset, nset=Roller_right
 33644,
************************************************************************
**                    MATERIAL DEFINITION                               
************************************************************************
**
** Material properties for the real material
**
*uel property,elset=elhard
*******************************************************************
**Gshear    Kbulk     Gc      l_0        Kvar    eta,   n
<Gh>,         <Kh>,    <Gch>,   <l_0>,     <kvarh>, <eta>, <n>  
**
*uel property,elset=elsoft
*******************************************************************
**Gshear    Kbulk     Gc      l_0        Kvar    eta,   n
<Gs>,         <Ks>,    <Gcs>,   <l_0>,     <kvars>, <eta>, <n>  
**
*******************************************************************
**
** Dummy mesh material properties
**
*Solid section, elset=ElDummy, material=Material-1
*Solid section, elset=tempElement, material=Material-2
**
*Material, name=Material-1
*User output variables
10
** The dummy mesh stiffness is very small
*Elastic
1.e-20
*Density
1.0
*Material, name=Material-2
*Elastic
1.e-20
*Conductivity
1.0
*Density
1.0
*Specific heat
1.0
**
************************************************************************
**                   Boundary conditions                                
************************************************************************
**
** Initial BCS
**
**boundary
**
************************************************************************
**                  INITIAL CONDITIONS                                  
************************************************************************
*Initial conditions, type=temperature
nall, 0.0
tempElement, 0.0
************************************************************************
**                  Step definition                                     
************************************************************************
*Step, Name=load, nlgeom=no, inc=2147483647
*Coupled temperature-displacement, deltmx=1.e09
1.e-5,<tf>,1.e-20,0.02
*CONTROLS, PARAMETERS=TIME INCREMENTATION
,,,,,,,20,,,,,,
*Boundary
Load,2,2,-0.5
Roller_right,2,2
Roller_left,1,2
*boundary
tempElement,1,2
tempElement,11,11
****************
****************  OUTPUTS
****************
****************  Field output
****************
*Output, field, frequency=1
*node output, nset=nall
u,coord,nt,rf
*Element output, elset=eldummy
uvarm,e
****************
****************  History output
****************
*Output, history, frequency=1
*energy output, elset=elhard
allie
*END STEP
************************************************************************